15
FORCE:  0.041634  ...  ENERGY:  -84.12445989
Pt    2.6859529360284    2.0900290836132    0.0462907238496 
Pt    5.1280941851618    3.4999999911995    0.0462907238496 
Pt    5.1280941851618    0.6800581760269    0.0462907238496 
Pt    4.3140471021174    2.0900290836132    2.3487635612131 
Pt    6.7561883512508    3.4999999911995    2.3487635612131 
Pt    1.8719058529840    0.6800581760269    2.3487635612131 
Pt    2.7135742864747    2.1251497109085    6.8528759731663 
Pt    5.1617170489451    3.5532073024868    7.0180645947670 
Pt    5.1357534728381    0.7336566696468    6.9745043581912 
Pt    5.9401227896009    2.0883882158534    4.6558617127003 
Pt    3.5522748833614    3.5220998472266    4.6613328566605 
Pt    3.5280759741173    0.6686317857773    4.5940299157087 
 O    4.4075246017455    0.2705307541514    9.1609579047821 
 O    5.5653610454766    3.7596520865052    8.9962768695130 
 H    2.5709333082263    3.7631020456555    9.4109309086088 
15
FORCE:  0.035540  ...  ENERGY:  -84.12446320
Pt    2.6859529360284    2.0900290836132    0.0462907238496 
Pt    5.1280941851618    3.4999999911995    0.0462907238496 
Pt    5.1280941851618    0.6800581760269    0.0462907238496 
Pt    4.3140471021174    2.0900290836132    2.3487635612131 
Pt    6.7561883512508    3.4999999911995    2.3487635612131 
Pt    1.8719058529840    0.6800581760269    2.3487635612131 
Pt    2.7136130920996    2.1252414577163    6.8527152522329 
Pt    5.1619334715047    3.5533497659488    7.0189513233279 
Pt    5.1355654523814    0.7335675453849    6.9744742921018 
Pt    5.9402587191842    2.0884014977795    4.6558519854361 
Pt    3.5522193979116    3.5221497601972    4.6611453857506 
Pt    3.5281482126561    0.6687673967805    4.5938488559502 
 O    4.4068573110639    0.2708282862153    9.1605086820358 
 O    5.5655612277968    3.7599060927668    8.9959070123994 
 H    2.5714503583768    3.7627517242803    9.4110927349131 
15
FORCE:  0.027539  ...  ENERGY:  -84.12446621
Pt    2.6859529360284    2.0900290836132    0.0462907238496 
Pt    5.1280941851618    3.4999999911995    0.0462907238496 
Pt    5.1280941851618    0.6800581760269    0.0462907238496 
Pt    4.3140471021174    2.0900290836132    2.3487635612131 
Pt    6.7561883512508    3.4999999911995    2.3487635612131 
Pt    1.8719058529840    0.6800581760269    2.3487635612131 
Pt    2.7136075240175    2.1252283449868    6.8527382439483 
Pt    5.1619025051534    3.5533293777692    7.0188246478192 
Pt    5.1355922915140    0.7335802774223    6.9744784925114 
Pt    5.9402392553182    2.0883995943187    4.6558533118812 
Pt    3.5522273348708    3.5221426116446    4.6611721357271 
Pt    3.5281378823985    0.6687479814810    4.5938749427042 
 O    4.4069527011020    0.2707857332929    9.1605730146239 
 O    5.5655325814797    3.7598697578161    8.9959598491300 
 H    2.5713764591818    3.7628018064475    9.4110695221236 
15
FORCE:  0.008534  ...  ENERGY:  -84.12449649
Pt    2.6859529360284    2.0900290836132    0.0462907238496 
Pt    5.1280941851618    3.4999999911995    0.0462907238496 
Pt    5.1280941851618    0.6800581760269    0.0462907238496 
Pt    4.3140471021174    2.0900290836132    2.3487635612131 
Pt    6.7561883512508    3.4999999911995    2.3487635612131 
Pt    1.8719058529840    0.6800581760269    2.3487635612131 
Pt    2.7136625698818    2.1253639559900    6.8525923349854 
Pt    5.1620868623981    3.5534911719325    7.0196722462491 
Pt    5.1353934279501    0.7334975826277    6.9743776826825 
Pt    5.9403973107015    2.0884450235818    4.6558024648184 
Pt    3.5522030844079    3.5222270830025    4.6609022041458 
Pt    3.5282230642862    0.6689017811091    4.5936222549094 
 O    4.4069298670811    0.2704083827752    9.1604098618745 
 O    5.5656406706524    3.7601501164342    8.9957045084449 
 H    2.5714258392784    3.7631758153342    9.4109872825263 
